units(length='cm', time='s', quantity='mol', act_energy='kcal/mol')

ideal_gas(name='gas',
          elements="H D T C Ci O Oi N Ne Ar He Si S F Cl Br I X",
          species="""CH3   C2H4  C3H7""",
          reactions='all',
          initial_state=state(temperature=300.0, pressure=OneAtm))

#-------------------------------------------------------------------------------
# Element data
#-------------------------------------------------------------------------------

element(symbol='Ci', atomic_mass=13.003)
element(symbol='D', atomic_mass=2.014)
element(symbol='Oi', atomic_mass=18.0)
element(symbol='T', atomic_mass=3.016)
element(symbol='X', atomic_mass=195.083)
#-------------------------------------------------------------------------------
# Species data
#-------------------------------------------------------------------------------

species(name='CH3',
        atoms='C:1 H:3',
        thermo=(NASA([10.00, 550.25],
                     [ 3.98357268E+00,  9.12258960E-04,  9.10025506E-06,
                      -1.21425841E-08,  5.48821960E-12,  1.55973995E+04,
                       2.35334197E-01]),
                NASA([550.25, 3000.00],
                     [ 3.48507396E+00,  4.53619209E-03, -7.79076524E-07,
                      -1.72631469E-10,  4.96014761E-14,  1.56522573E+04,
                       2.34248938E+00])))

species(name='C2H4',
        atoms='C:2 H:4',
        thermo=(NASA([10.00, 733.68],
                     [ 4.10239188E+00, -7.10855682E-03,  5.47103831E-05,
                      -6.75634733E-08,  2.75481684E-11,  6.51635188E+03,
                       3.23344213E+00]),
                NASA([733.68, 3000.00],
                     [ 5.57358209E-01,  1.83764747E-02, -9.98252069E-06,
                       2.65955178E-09, -2.77994913E-13,  6.87080618E+03,
                       1.81089099E+01])))

species(name='C3H7',
        atoms='C:3 H:7',
        thermo=(NASA([10.00, 836.77],
                     [ 3.87840400E+00,  1.19938560E-02,  3.21407383E-05,
                      -4.57876442E-08,  1.78678201E-11,  1.02177347E+04,
                       8.64694195E+00]),
                NASA([836.77, 3000.00],
                     [ 1.38175807E+00,  3.16854972E-02, -1.70638481E-05,
                       4.49285368E-09, -4.64282980E-13,  1.03639939E+04,
                       1.86242017E+01])))

#-------------------------------------------------------------------------------
# Reaction data
#-------------------------------------------------------------------------------
#  Fitted to 8 data points; dA = *|/ 1.24741, dn = +|- 0.0301781, dEa = +|- 0.130762 kJ/mol

# Reaction 1
reaction('CH3 + C2H4 <=> C3H7', [4.683000e+03, 2.721, 4.728])
