units(length='cm', time='s', quantity='mol', act_energy='kcal/mol')

ideal_gas(name='gas',
          elements="H D T C Ci O Oi N Ne Ar He Si S F Cl Br I X",
          species="""r_no2            r_hydroxylamine  p_hono
                     p_nitric_oxide""",
          reactions='all',
          initial_state=state(temperature=300.0, pressure=OneAtm))

#-------------------------------------------------------------------------------
# Element data
#-------------------------------------------------------------------------------

element(symbol='Ci', atomic_mass=13.003)
element(symbol='D', atomic_mass=2.014)
element(symbol='Oi', atomic_mass=18.0)
element(symbol='T', atomic_mass=3.016)
element(symbol='X', atomic_mass=195.083)
#-------------------------------------------------------------------------------
# Species data
#-------------------------------------------------------------------------------

species(name='r_no2',
        atoms='N:1 O:2',
        thermo=(NASA([10.00, 783.48],
                     [ 4.03073911E+00, -2.06322492E-03,  1.80931231E-05,
                      -2.30185116E-08,  9.32025389E-12, -3.64147502E+04,
                       5.92784661E+00]),
                NASA([783.48, 3000.00],
                     [ 3.07784012E+00,  6.13145687E-03, -3.97076956E-06,
                       1.18018204E-09, -1.32166681E-13, -3.63676306E+04,
                       9.64032392E+00])))

species(name='r_hydroxylamine',
        atoms='H:3 N:1 O:1',
        thermo=(NASA([10.00, 491.09],
                     [ 4.02603938E+00, -2.15996809E-03,  3.61451770E-05,
                      -5.56851716E-08,  2.89876292E-11, -4.16154936E+04,
                       4.82409555E+00]),
                NASA([491.09, 3000.00],
                     [ 2.33055810E+00,  1.16501858E-02, -6.03761336E-06,
                       1.57986901E-09, -1.64824038E-13, -4.14489693E+04,
                       1.17980829E+01])))

species(name='p_hono',
        atoms='H:1 N:1 O:2',
        thermo=(NASA([10.00, 527.10],
                     [ 4.05583009E+00, -5.50874009E-03,  6.37335051E-05,
                      -1.20971979E-07,  7.43934699E-11, -4.77992021E+04,
                       6.50747212E+00]),
                NASA([527.10, 3000.00],
                     [ 3.33376928E+00,  9.53017410E-03, -6.26717998E-06,
                       1.96987424E-09, -2.35522248E-13, -4.78558805E+04,
                       8.26891763E+00])))

species(name='p_nitric_oxide',
        atoms='H:2 N:1 O:1',
        thermo=(NASA([10.00, 599.18],
                     [ 4.00044807E+00, -1.31601563E-04,  1.55201621E-05,
                      -2.04262472E-08,  8.80024809E-12, -3.13417508E+04,
                       4.95051378E+00]),
                NASA([599.18, 3000.00],
                     [ 2.85563605E+00,  7.51089677E-03, -3.61216482E-06,
                       8.60912361E-10, -8.15092909E-14, -3.12045606E+04,
                       9.88720902E+00])))

#-------------------------------------------------------------------------------
# Reaction data
#-------------------------------------------------------------------------------
#  Fitted to 6 data points; dA = *|/ 1.33796, dn = +|- 0.0384536, dEa = +|- 0.212065 kJ/mol

# Reaction 1
reaction('r_no2 + r_hydroxylamine <=> p_hono + p_nitric_oxide', [1.005000e+01, 3.081, 3.53])
