ELEMENTS 
 O H C N Rh Pt
END
SPECIES
 O2 C3H6 H2 H2O CO2 CO NO N2
END
THERMO
C3H6              120186C   3H   6          G  0300.00   5000.00  1000.00      1
 0.06732257E+02 0.14908336E-01-0.04949899E-04 0.07212022E-08-0.03766204E-12    2
-0.09235703E+04-0.13313348E+02 0.14933071E+01 0.02092517E+00 0.04486794E-04    3
-0.16689121E-07 0.07158146E-10 0.10748264E+04 0.16145340E+02                   4
END
REACTIONS
END
